Version 4
SHEET 1 1376 696
WIRE 16 -144 -16 -144
WIRE 112 -144 80 -144
WIRE -16 -48 -16 -144
WIRE 16 -48 -16 -48
WIRE 112 -48 112 -144
WIRE 112 -48 96 -48
WIRE 304 -48 272 -48
WIRE 416 -48 384 -48
WIRE 960 64 912 64
WIRE 48 80 48 48
WIRE -224 96 -288 96
WIRE -128 96 -160 96
WIRE -16 96 -16 -48
WIRE -16 96 -48 96
WIRE 16 96 -16 96
WIRE 336 96 336 64
WIRE 112 112 112 -48
WIRE 112 112 80 112
WIRE 144 112 112 112
WIRE 272 112 272 -48
WIRE 272 112 224 112
WIRE 304 112 272 112
WIRE 912 112 912 64
WIRE 16 128 -16 128
WIRE 416 128 416 -48
WIRE 416 128 368 128
WIRE 528 128 416 128
WIRE 880 128 608 128
WIRE -288 144 -288 96
WIRE 304 144 272 144
WIRE 1008 144 944 144
WIRE 1056 144 1008 144
WIRE 1280 144 1136 144
WIRE 848 160 800 160
WIRE 880 160 848 160
WIRE 48 176 48 144
WIRE 1280 176 1280 144
WIRE 336 192 336 160
WIRE 800 192 800 160
WIRE 912 224 912 176
WIRE 960 224 912 224
WIRE -16 240 -16 128
WIRE -16 240 -128 240
WIRE 272 240 272 144
WIRE 272 240 -16 240
WIRE 848 288 848 160
WIRE 880 288 848 288
WIRE 1008 288 1008 144
WIRE 1008 288 960 288
WIRE 160 304 0 304
WIRE -288 320 -288 224
WIRE -128 320 -128 240
WIRE -128 320 -288 320
WIRE -96 320 -128 320
WIRE -96 384 -336 384
WIRE 80 384 80 368
WIRE 80 384 -96 384
WIRE -96 416 -96 384
WIRE 800 448 800 272
WIRE 800 448 672 448
WIRE -336 464 -336 384
WIRE 80 464 80 384
WIRE 0 480 0 304
WIRE 48 480 0 480
WIRE 160 496 160 304
WIRE 160 496 112 496
WIRE 288 496 288 464
WIRE 288 496 160 496
WIRE -96 512 -96 496
WIRE -96 512 -176 512
WIRE 48 512 -96 512
WIRE -96 528 -96 512
WIRE -336 624 -336 544
WIRE -176 624 -176 576
WIRE -176 624 -336 624
WIRE -96 624 -96 608
WIRE -96 624 -176 624
WIRE 80 624 80 528
WIRE 80 624 -96 624
WIRE 80 656 80 624
FLAG 48 48 VCC
FLAG 336 64 VCC
FLAG 960 224 VCC
FLAG 80 368 VCC
FLAG 48 176 0
FLAG 336 192 0
FLAG 960 64 0
FLAG 80 656 0
FLAG 288 464 VCC/2
FLAG 672 448 VCC/2
FLAG 1280 256 0
FLAG -96 320 VCC/2
SYMBOL Opamps\\AD8092 48 48 R0
SYMATTR InstName U1
SYMBOL Opamps\\AD8092 336 64 R0
SYMATTR InstName U2
SYMBOL Opamps\\AD8092 912 208 M180
SYMATTR InstName U3
SYMBOL Opamps\\AD8092 80 432 R0
SYMATTR InstName U4
SYMBOL res -32 80 R90
WINDOW 0 0 56 VBottom 2
WINDOW 3 32 56 VTop 2
SYMATTR InstName R1
SYMATTR Value 470
SYMBOL res 112 -64 R90
WINDOW 0 0 56 VBottom 2
WINDOW 3 32 56 VTop 2
SYMATTR InstName R2
SYMATTR Value 1580k
SYMBOL res 240 96 R90
WINDOW 0 0 56 VBottom 2
WINDOW 3 32 56 VTop 2
SYMATTR InstName R3
SYMATTR Value 470
SYMBOL res 400 -64 R90
WINDOW 0 0 56 VBottom 2
WINDOW 3 32 56 VTop 2
SYMATTR InstName R4
SYMATTR Value 140k
SYMBOL cap 80 -160 R90
WINDOW 0 0 32 VBottom 2
WINDOW 3 32 32 VTop 2
SYMATTR InstName C1
SYMATTR Value 100p
SYMBOL cap -192 512 R0
SYMATTR InstName C7
SYMATTR Value 1µ
SYMBOL res 816 288 R180
WINDOW 0 36 76 Left 2
WINDOW 3 36 40 Left 2
SYMATTR InstName R8
SYMATTR Value 470
SYMBOL res 864 304 R270
WINDOW 0 32 56 VTop 2
WINDOW 3 0 56 VBottom 2
SYMATTR InstName R9
SYMATTR Value 51k
SYMBOL res -112 400 R0
SYMATTR InstName R10
SYMATTR Value 100k
SYMBOL res -112 512 R0
SYMATTR InstName R11
SYMATTR Value 100k
SYMBOL res 1264 160 R0
SYMATTR InstName R12
SYMATTR Value 1000k
SYMBOL voltage -336 448 R0
WINDOW 123 0 0 Left 0
WINDOW 39 0 0 Left 0
SYMATTR InstName V1
SYMATTR Value 3.3
SYMBOL cap -160 80 R90
WINDOW 0 0 32 VBottom 2
WINDOW 3 32 32 VTop 2
SYMATTR InstName C8
SYMATTR Value 3.4n
SYMBOL voltage -288 128 R0
WINDOW 123 24 124 Left 2
WINDOW 39 0 0 Left 0
SYMATTR InstName V2
SYMATTR Value ""
SYMATTR Value2 AC 1u
SYMBOL res 512 144 R270
WINDOW 0 32 56 VTop 2
WINDOW 3 0 56 VBottom 2
SYMATTR InstName R5
SYMATTR Value 470
SYMBOL res 1040 160 R270
WINDOW 0 32 56 VTop 2
WINDOW 3 0 56 VBottom 2
SYMATTR InstName R6
SYMATTR Value 50k
TEXT 552 -32 Left 2 !.ac dec 100 1k 100k
